6
CELL(abcABC):  200.000000 200.000000 200.000000 90.000000 90.000000 90.000000 cell{atomic_unit}  Traj: positions{angstrom}   Bead:       0
H 1.2984171434360128 1.5792525812104887 1.3472677699495013
C 0.6060487606930622 0.7463952151459565 0.6271927595407766
H 0.01981948677703441 0.12884022728732508 1.3091735261736133
H 1.3100817208490638 0.142782418686764 0.05262667910103766
H -0.03859092314836965 1.3337563737262867 -0.028233321061574133
H 1.8111412161563516 2.1958026839948968 1.8802303238607017
6
CELL(abcABC):  200.000000 200.000000 200.000000 90.000000 90.000000 90.000000 cell{atomic_unit}  Traj: positions{angstrom}   Bead:       1
H 1.2988184892510541 1.5797353177662956 1.3476851146146667
C 0.6059870765868957 0.7463210169873641 0.6271286101458947
H 0.019810207363641346 0.1288318622956691 1.3092050412232037
H 1.310113565865801 0.14277451132019117 0.05261816587732927
H -0.03860205986298873 1.333786407737817 -0.028244418399964596
H 1.8110939618245625 2.1957458592524177 1.880181202276752
6
CELL(abcABC):  200.000000 200.000000 200.000000 90.000000 90.000000 90.000000 cell{atomic_unit}  Traj: positions{angstrom}   Bead:       2
H 1.299617726493433 1.580696636523059 1.3485162125426617
C 0.6058639679153427 0.7461729328699718 0.627000581279344
H 0.019791736849720912 0.12881521766112086 1.3092678553492316
H 1.3101770367191228 0.14275877839231585 0.05260122271759636
H -0.03862423118241814 1.3338462739570738 -0.028266510430076212
H 1.8110006660416869 2.1956336679999104 1.8800842195131042
6
CELL(abcABC):  200.000000 200.000000 200.000000 90.000000 90.000000 90.000000 cell{atomic_unit}  Traj: positions{angstrom}   Bead:       3
H 1.3008076885513558 1.5821279185506574 1.3497536128295446
C 0.605680104067813 0.7459517680007327 0.6268093690999209
H 0.019764230768549038 0.12879043522010988 1.3093614639328652
H 1.310271623399963 0.14273535425372377 0.05257599289950363
H -0.03865725151246196 1.3339354926626186 -0.028299411941627946
H 1.8108639518488268 2.195469264036859 1.8799421016047055
6
CELL(abcABC):  200.000000 200.000000 200.000000 90.000000 90.000000 90.000000 cell{atomic_unit}  Traj: positions{angstrom}   Bead:       4
H 1.3023775131842559 1.5840161004088518 1.3513860223260001
C 0.6054365650975938 0.7456588215598184 0.6265560968446179
H 0.019727910706290857 0.1287577121786938 1.3094850781082157
H 1.310396529317533 0.1427044247646618 0.05254267862088084
H -0.038700853287731735 1.334053310371405 -0.02834285677424351
H 1.810687799981015 2.1952574336119626 1.8797589857247272
6
CELL(abcABC):  200.000000 200.000000 200.000000 90.000000 90.000000 90.000000 cell{atomic_unit}  Traj: positions{angstrom}   Bead:       5
H 1.304312676391169 1.5863437146887407 1.3533983406960812
C 0.6051348422419209 0.745295887336142 0.6262423153764999
H 0.019683061720695217 0.1287172989153616 1.3096376321887584
H 1.310550678971592 0.1426662251450385 0.05250153868942477
H -0.03875469001605217 1.3341987068749304 -0.028396500588538834
H 1.8104774667380836 2.1950044967473232 1.879540334740077
6
CELL(abcABC):  200.000000 200.000000 200.000000 90.000000 90.000000 90.000000 cell{atomic_unit}  Traj: positions{angstrom}   Bead:       6
H 1.3065950542768197 1.5890889644594934 1.355771724725878
C 0.6047768372982522 0.7448652529767605 0.6258700025299927
H 0.01963002876396639 0.12866949553227555 1.309817794442954
H 1.310732728815186 0.14262103669034948 0.0524528851751913
H -0.03881834047770572 1.3343704054631478 -0.028459925233417747
H 1.810239371173696 2.1947181714554937 1.8792928199390029
6
CELL(abcABC):  200.000000 200.000000 200.000000 90.000000 90.000000 90.000000 cell{atomic_unit}  Traj: positions{angstrom}   Bead:       7
H 1.3092030269931056 1.5922258481760732 1.3584836962940865
C 0.6043648597673692 0.7443696965419784 0.6254415601457632
H 0.01956921212369425 0.1286146475772627 1.3100239812749335
H 1.3109410815383726 0.14256918275431849 0.05239707907204446
H -0.03889131415951728 1.3345668863882023 -0.028532644197624583
H 1.8099809505143019 2.1944074001170235 1.8790241709162137
6
CELL(abcABC):  200.000000 200.000000 200.000000 90.000000 90.000000 90.000000 cell{atomic_unit}  Traj: positions{angstrom}   Bead:       8
H 1.3121116390110752 1.5957243523839584 1.3615083088889033
C 0.6039016205748048 0.7438124789631035 0.6249598075357262
H 0.019501061947982446 0.1285531411904034 1.3102543747422821
H 1.3111739038580568 0.14251102411832994 0.05233452540427206
H -0.03897305774360783 1.334786403460721 -0.028614108945190397
H 1.8097104839056624 2.194082137370046 1.878742992279343
6
CELL(abcABC):  200.000000 200.000000 200.000000 90.000000 90.000000 90.000000 cell{atomic_unit}  Traj: positions{angstrom}   Bead:       9
H 1.3152928289669277 1.5995507280416388 1.3648163865476235
C 0.6033902212109383 0.7431973309746793 0.6244279701936167
H 0.019426072420462116 0.12848539783050347 1.3105069436797336
H 1.3114291477737745 0.14244695401550792 0.052265667793502675
H -0.03906296225608492 1.3350270042691266 -0.028703716135794925
H 1.8094368849379632 2.1937531007599955 1.8784585480772
6
CELL(abcABC):  200.000000 200.000000 200.000000 90.000000 90.000000 90.000000 cell{atomic_unit}  Traj: positions{angstrom}   Bead:       10
H 1.3187157393736604 1.603667862963028 1.3683758457196875
C 0.6028341372494893 0.7425284332897492 0.623849662650192
H 0.019344775371183773 0.1284118688056628 1.3107794681846279
H 1.3117045752790113 0.14237739298842378 0.05219098273288407
H -0.039160370725817004 1.3352865536289429 -0.0288008152256705
H 1.809169465471452 2.1934314866852755 1.8781805163007594
6
CELL(abcABC):  200.000000 200.000000 200.000000 90.000000 90.000000 90.000000 cell{atomic_unit}  Traj: positions{angstrom}   Bead:       11
H 1.322347111890797 1.608035757075768 1.3721521060928796
C 0.6022371954466647 0.7418103890513604 0.6232288646558583
H 0.019257733895336908 0.12833302988690198 1.311069567426757
H 1.31199778632589 0.14230278385975823 0.05211097388653081
H -0.03926458621832143 1.3355627603179596 -0.02890471636666907
H 1.8089176748984785 2.1931286569363486 1.877918717913351
6
CELL(abcABC):  200.000000 200.000000 200.000000 90.000000 90.000000 90.000000 cell{atomic_unit}  Traj: positions{angstrom}   Bead:       12
H 1.3261517675253318 1.6126120999563147 1.3761085898631784
C 0.6016035439804546 0.7410481880338763 0.6225698902341864
H 0.01916553604225076 0.1282493762113899 1.3113747303444327
H 1.31230624980618 0.14222358711340796 0.05202616654425586
H -0.039374879796829874 1.3358532068714004 -0.029014698296854314
H 1.8086908212338533 2.1928558034083556 1.8776828270416812
6
CELL(abcABC):  200.000000 200.000000 200.000000 90.000000 90.000000 90.000000 cell{atomic_unit}  Traj: positions{angstrom}   Bead:       13
H 1.3300931644438851 1.6173529416555565 1.380207301619247
C 0.6009376158182197 0.740247162577969 0.62187734957782
H 0.019068788780667804 0.12816141777358803 1.311692348954355
H 1.3126273370144603 0.14214027676586724 0.05193710243189764
H -0.039490498341186585 1.3361553818936518 -0.02913001596217878
H 1.8084977826631674 2.1926236012044367 1.8774820711326967
6
CELL(abcABC):  200.000000 200.000000 200.000000 90.000000 90.000000 90.000000 cell{atomic_unit}  Traj: positions{angstrom}   Bead:       14
H 1.3341340187525603 1.6222134391723892 1.3844094736926087
C 0.6002440856541466 0.7394129357886197 0.6211561042645557
H 0.018968112483680584 0.12806967553161053 1.3120197535576108
H 1.3129583570197576 0.14205333695045932 0.05184433510701301
H -0.039610671921952154 1.3364667143744675 -0.029249907720087495
H 1.8083467199492824 2.192441862890496 1.8773249320855387
6
CELL(abcABC):  200.000000 200.000000 200.000000 90.000000 90.000000 90.000000 cell{atomic_unit}  Traj: positions{angstrom}   Bead:       15
H 1.3382369669420315 1.6271486532039012 1.3886762549001757
C 0.5995278213123708 0.7385513630765338 0.6204112167160492
H 0.018864136005049107 0.12797467833892295 1.3123542491131612
H 1.3132965931794156 0.14196325933174367 0.05174842603134968
H -0.039734620574138596 1.336784609288748 -0.029373601891166185
H 1.8082448016708768 2.1923192081200504 1.877218860729817
6
CELL(abcABC):  200.000000 200.000000 200.000000 90.000000 90.000000 90.000000 cell{atomic_unit}  Traj: positions{angstrom}   Bead:       16
H 1.3423652435759292 1.6321143632006072 1.3929694151623286
C 0.5987938309307905 0.7376684686285375 0.6196478952686592
H 0.01875749257153025 0.12787696078302324 1.3126931518715885
H 1.313639339914634 0.1418705413226916 0.051649941377321526
H -0.0398615602678518 1.337106483605928 -0.029500322500626577
H 1.8081979548408225 2.19226276380352 1.877170017615041
6
CELL(abcABC):  200.000000 200.000000 200.000000 90.000000 90.000000 90.000000 cell{atomic_unit}  Traj: positions{angstrom}   Bead:       17
H 1.3464833445651683 1.6370678650163613 1.3972520350706235
C 0.5980472075505754 0.7367703787488742 0.6188714365419817
H 0.018648816445184707 0.12777706183713383 1.3130338253861034
H 1.3139839387451477 0.14177568526936382 0.05154944970147757
H -0.03999070801190726 1.3374298017522326 -0.02962929409485713
H 1.8082106531857454 2.1922779095269327 1.8771830529723648
6
CELL(abcABC):  200.000000 200.000000 200.000000 90.000000 90.000000 90.000000 cell{atomic_unit}  Traj: positions{angstrom}   Bead:       18
H 1.3505576453825796 1.6419687145092439 1.4014891487534489
C 0.5972930729204449 0.7358632542630977 0.6180871669994653
H 0.01853874045950195 0.1276755243926888 1.3133737147202993
H 1.3143278126341915 0.14167919831771625 0.051447520330352645
H -0.04012128600562829 1.3377521095253317 -0.02975974563441125
H 1.8082857540470434 2.192368081488174 1.8772609372623192
6
CELL(abcABC):  200.000000 200.000000 200.000000 90.000000 90.000000 90.000000 cell{atomic_unit}  Traj: positions{angstrom}   Bead:       19
H 1.3545569456300601 1.6467793825490766 1.4056483101203403
C 0.5965365223884194 0.7349532242331553 0.6173003856362221
H 0.018427894347313314 0.12757289547098102 1.31371037808169
H 1.314668497579205 0.141581593055034 0.05134472256199436
H -0.040252524857821846 1.338071065334413 -0.02989091339580002
H 1.8084243926301968 2.1925346452986827 1.87740485122577
6
CELL(abcABC):  200.000000 200.000000 200.000000 90.000000 90.000000 90.000000 cell{atomic_unit}  Traj: positions{angstrom}   Bead:       20
H 1.3584529157379832 1.6514657922725606 1.4097000573867728
C 0.5957825726493425 0.7340463230967319 0.6165163096331483
H 0.018316903661858244 0.1274697270138504 1.314041514665038
H 1.315003670526412 0.14148338857984386 0.0512416253879135
H -0.04038366585517694 1.3383844680183352 -0.030022043105054557
H 1.8086259390550958 2.1927768444019873 1.8776141412560363
6
CELL(abcABC):  200.000000 200.000000 200.000000 90.000000 90.000000 90.000000 cell{atomic_unit}  Traj: positions{angstrom}   Bead:       21
H 1.3622204278814805 1.6559977171171676 1.41361825716744
C 0.595036113888611 0.7331484331039348 0.6157400245875607
H 0.018206389325686665 0.12736657692427508 1.314364988154826
H 1.3153311728237098 0.14138511182980132 0.051138797742708485
H -0.040513962514599274 1.3386902802740255 -0.030152391199016405
H 1.8088880200876136 2.193091826159969 1.877886342012347
6
CELL(abcABC):  200.000000 200.000000 200.000000 90.000000 90.000000 90.000000 cell{atomic_unit}  Traj: positions{angstrom}   Bead:       22
H 1.3658377607577574 1.6603490272593118 1.417380317596939
C 0.5943018675349239 0.7322652335002596 0.6149764405812415
H 0.018096967567891302 0.12726401016898384 1.3146788451104805
H 1.315649028612099 0.14128729889852829 0.05103680880376378
H -0.040642681534417247 1.3389866469673166 -0.03028122561757155
H 1.8092066035889975 2.193474743378681 1.878217264050097
6
CELL(abcABC):  200.000000 200.000000 200.000000 90.000000 90.000000 90.000000 cell{atomic_unit}  Traj: positions{angstrom}   Bead:       23
H 1.3692866765542933 1.6644977822066576 1.4209672683712866
C 0.593584350446029 0.7314021574423155 0.6142302549276456
H 0.01798924987158211 0.12716259968998966 1.3149813279081572
H 1.3159554577253099 0.14119049612551332 0.05093622842242528
H -0.04076910341750543 1.3392719081275404 -0.030407826248660567
H 1.8095761398174544 2.193918924219051 1.8786011408934267
6
CELL(abcABC):  200.000000 200.000000 200.000000 90.000000 90.000000 90.000000 cell{atomic_unit}  Traj: positions{angstrom}   Bead:       24
H 1.372552375870168 1.6684261766533826 1.4243637140244731
C 0.5928878459149237 0.730564357129398 0.6135059220294304
H 0.01788384288185532 0.12706292670912886 1.3152708818783592
H 1.316248882926899 0.14109526044648757 0.05083762717874421
H -0.04089252289895544 1.339544606142319 -0.030531485314429806
H 1.809989750988662 2.1944161001204563 1.8790308258607236
6
CELL(abcABC):  200.000000 200.000000 200.000000 90.000000 90.000000 90.000000 cell{atomic_unit}  Traj: positions{angstrom}   Bead:       25
H 1.375623343389867 1.6721203551108939 1.427557673653369
C 0.5922163815114659 0.729756677142594 0.6128076303249966
H 0.017781347917386232 0.12696558041241596 1.315546157090847
H 1.3165279315465401 0.14100215905318275 0.05074157596458049
H -0.041012249515016384 1.3398034873514484 -0.03065150795032083
H 1.8104394579384775 2.194956678251306 1.8794980275921418
6
CELL(abcABC):  200.000000 200.000000 200.000000 90.000000 90.000000 90.000000 cell{atomic_unit}  Traj: positions{angstrom}   Bead:       26
H 1.3784911022502355 1.6755701164342331 1.430540325614954
C 0.591573713395283 0.7289836355862896 0.612139285986786
H 0.017682359990536547 0.1268711563538583 1.3158060045278661
H 1.316791431958986 0.1409117679002195 0.050648644735089114
H -0.041127608495855714 1.3400474981973638 -0.03076721318865803
H 1.8109164314138249 2.1955300437456193 1.8799935713064417
6
CELL(abcABC):  200.000000 200.000000 200.000000 90.000000 90.000000 90.000000 cell{atomic_unit}  Traj: positions{angstrom}   Bead:       27
H 1.3811498981807602 1.6787685340546168 1.4333056792264451
C 0.590963316489178 0.7282494122567479 0.6115045026947643
H 0.017587465823933217 0.12678025397214474 1.3160494677827417
H 1.3170384051341768 0.14082466898197513 0.050559400567416306
H -0.041237942396120046 1.3402757763799427 -0.03087793566189168
H 1.8114112556680917 2.196124876545539 1.8805076727546306
6
CELL(abcABC):  200.000000 200.000000 200.000000 90.000000 90.000000 90.000000 cell{atomic_unit}  Traj: positions{angstrom}   Bead:       28
H 1.38359633560718 1.681711518490219 1.4358501964952797
C 0.5903883796894062 0.7275578428965077 0.6109065966693668
H 0.017497241286230748 0.12669347258394595 1.3162757704004875
H 1.3172680521931475 0.1407414463554336 0.05047440452036115
H -0.04134261322608502 1.3404876379878876 -0.03098302796377251
H 1.8119141923931517 2.1967294686703585 1.8810302123398996
6
CELL(abcABC):  200.000000 200.000000 200.000000 90.000000 90.000000 90.000000 cell{atomic_unit}  Traj: positions{angstrom}   Bead:       29
H 1.385828987511544 1.6843973480850518 1.4381723866149019
C 0.5898518052107408 0.7269124184052242 0.6103485859841123
H 0.017412247779220975 0.1266114062852256 1.3164842998239141
H 1.317479738602668 0.14066268080300173 0.05039420752316994
H -0.041441005571379426 1.3406825607769923 -0.03108186407735476
H 1.812415434662401 2.1973320295861978 1.881550999032167
6
CELL(abcABC):  200.000000 200.000000 200.000000 90.000000 90.000000 90.000000 cell{atomic_unit}  Traj: positions{angstrom}   Bead:       30
H 1.3878479988050116 1.686826192044755 1.4402723935830262
C 0.5893562111124249 0.726316287877521 0.6098331931992067
H 0.017333027753951954 0.12653463748202526 1.3166745889205143
H 1.3176729758231402 0.1405889433439317 0.0503193453431224
H -0.041532530470400765 1.3408601649848766 -0.031173843525554315
H 1.8129053425820878 2.197920969676845 1.882060015530908
6
CELL(abcABC):  200.000000 200.000000 200.000000 90.000000 90.000000 90.000000 cell{atomic_unit}  Traj: positions{angstrom}   Bead:       31
H 1.3896546994484151 1.6889996453252802 1.442151594103559
C 0.5889039361051155 0.725772264387561 0.609362850368305
H 0.017260099266197003 0.1264637295978538 1.3168462959145317
H 1.3178474014527375 0.1405207876112735 0.0502503325445313
H -0.04161663007648601 1.3410201922773555 -0.03125839639227319
H 1.813374655337356 2.198485154980675 1.8825476383318671
6
CELL(abcABC):  200.000000 200.000000 200.000000 90.000000 90.000000 90.000000 cell{atomic_unit}  Traj: positions{angstrom}   Bead:       32
H 1.39125124071079 1.6909202909814178 1.4438122193238185
C 0.5884970458224147 0.7252828325409569 0.608939705555378
H 0.01719395011112178 0.12639921891385578 1.3169991832147474
H 1.3180027584644718 0.14045874159220567 0.05018765606143148
H -0.04169278292406359 1.3411624838296936 -0.03133498903617961
H 1.8138146754509614 2.199014128817423 1.8830048292603396
6
CELL(abcABC):  200.000000 200.000000 200.000000 90.000000 90.000000 90.000000 cell{atomic_unit}  Traj: positions{angstrom}   Bead:       33
H 1.3926402634666144 1.6925913014026832 1.445257010082234
C 0.5881373398544003 0.7248501569251908 0.6085656301559589
H 0.017135031493549783 0.12634160584389972 1.3171330967744388
H 1.318138874677566 0.14040329883421943 0.050131767969864995
H -0.041760509715179105 1.3412869583333875 -0.03140313019966429
H 1.8142174246948146 2.199498299236174 1.8834232976007184
6
CELL(abcABC):  200.000000 200.000000 200.000000 90.000000 90.000000 90.000000 cell{atomic_unit}  Traj: positions{angstrom}   Bead:       34
H 1.3938246044554277 1.6940160850586192 1.4464889115234387
C 0.5878263589430277 0.7244760907811887 0.6082422263898448
H 0.017083751462824967 0.12629134625499938 1.3172479456530048
H 1.3182556428205379 0.14035490949668936 0.050083078520496795
H -0.04181937909009659 1.3413935907863777 -0.031462377335151205
H 1.8145757721173164 2.1999290928886777 1.8837956330803305
6
CELL(abcABC):  200.000000 200.000000 200.000000 90.000000 90.000000 90.000000 cell{atomic_unit}  Traj: positions{angstrom}   Bead:       35
H 1.3948070433543185 1.6951979822774894 1.4475108101455256
C 0.5875653918941146 0.7241621843076426 0.6079708344807428
H 0.01704046860311579 0.1262488430800478 1.3173436833212242
H 1.3183530018491743 0.14031397178465102 0.05004194918295586
H -0.04186901350336046 1.3414823925690922 -0.03151234264666034
H 1.8148835363116425 2.2002990780282015 1.8841154121777177
6
CELL(abcABC):  200.000000 200.000000 200.000000 90.000000 90.000000 90.000000 cell{atomic_unit}  Traj: positions{angstrom}   Bead:       36
H 1.3955900911744596 1.6961400107271454 1.4483253136592245
C 0.5873554818361685 0.7239096922101232 0.6077525391777697
H 0.017005486284751972 0.12621443852883235 1.3174202907776362
H 1.3184309205777738 0.14028082413735973 0.05000868628394772
H -0.041909094502657146 1.3415533936980848 -0.031552698772471216
H 1.8151355654271115 2.2006020606742633 1.8843772811367678
6
CELL(abcABC):  200.000000 200.000000 200.000000 90.000000 90.000000 90.000000 cell{atomic_unit}  Traj: positions{angstrom}   Bead:       37
H 1.3961758184391209 1.6968446588913295 1.4489345725895613
C 0.5871974315998554 0.7237195801491603 0.607588175342995
H 0.016979047703146906 0.12618840763783548 1.3174777620187978
H 1.3184893832518143 0.14025573861108032 0.0499835355414319
H -0.04193936722638954 1.3416066275387928 -0.03158318372542837
H 1.815327798041214 2.2008331579204286 1.8845770194528018
6
CELL(abcABC):  200.000000 200.000000 200.000000 90.000000 90.000000 90.000000 cell{atomic_unit}  Traj: positions{angstrom}   Bead:       38
H 1.3965657221229315 1.6973137259286155 1.4493401416821792
C 0.5870918079901295 0.7235925298927482 0.6074783324033625
H 0.01696133193081199 0.12617095290235925 1.3175160924755303
H 1.3185283781792223 0.1402389154597594 0.049966677877957694
H -0.04195964400650095 1.3416421184895597 -0.03160360446590268
H 1.8154573091709927 2.200988853120816 1.8847115875212064
6
CELL(abcABC):  200.000000 200.000000 200.000000 90.000000 90.000000 90.000000 cell{atomic_unit}  Traj: positions{angstrom}   Bead:       39
H 1.396760628125975 1.697548204455679 1.4495428787648053
C 0.5870389448501683 0.7235289430106399 0.6074233575412311
H 0.016952451525982612 0.12616220090304708 1.3175352701417193
H 1.3185478889094098 0.14023047976750258 0.04995822674185584
H -0.041969806491478426 1.3416598727563116 -0.031613839470503474
H 1.8155223443462105 2.201067036890693 1.884779162146209
