6
CELL(abcABC):  200.000000 200.000000 200.000000 90.000000 90.000000 90.000000 cell{atomic_unit}  Traj: positions{atomic_unit}   Bead:       0
H 1.2740419830237215e-06 -1.4627188349436437e-07 -8.470335544075168e-07
C 3.168953988108569e-06 -2.9883318042323026e-07 -2.3309798535819937e-06
H 6.076306124924713e-07 1.537409088925301e-06 1.7959356224395149e-06
H -1.9679480267598137e-06 -1.969147067626409e-06 -1.3280654354019814e-06
H -3.83248988100604e-07 4.6359582839272656e-07 6.84280410112592e-07
H -2.6994628754550827e-06 4.1325276534109884e-07 2.0258406063788925e-06
