6
CELL(abcABC):  200.000000 200.000000 200.000000 90.000000 90.000000 90.000000 cell{atomic_unit}  Traj: positions{atomic_unit}   Bead:       0
H -0.012651136788166538 -0.015217324189631396 -0.013156258682478493
C 0.011695205309747434 0.014067467907219465 0.012162131479698244
H -0.00010999594013405555 -0.00019350351321278933 -0.0010165449759735878
H -0.0010111417203528816 -0.000203201894199978 -0.00013887590522010385
H -6.918810524503272e-05 -0.0010350618639964893 -8.242166393834793e-05
H 0.0021462572663555335 0.002581623570474534 0.002231969753463403
6
CELL(abcABC):  200.000000 200.000000 200.000000 90.000000 90.000000 90.000000 cell{atomic_unit}  Traj: positions{atomic_unit}   Bead:       1
H -0.012513463215624297 -0.015051724860937197 -0.013013088590030362
C 0.011622916701314876 0.01398051602818917 0.012086956535650726
H -0.00010803311023543925 -0.0001905534396939856 -0.001005819783017614
H -0.0010005049178030134 -0.00020015880064505606 -0.00013659923747688651
H -6.761817772371614e-05 -0.0010240112480186525 -8.068819501438895e-05
H 0.002066702714520474 0.0024859323211057216 0.0021492392809907557
6
CELL(abcABC):  200.000000 200.000000 200.000000 90.000000 90.000000 90.000000 cell{atomic_unit}  Traj: positions{atomic_unit}   Bead:       2
H -0.012234658491871995 -0.014716367285894092 -0.012723152820193205
C 0.01147430254699877 0.013801756520992468 0.011932408527925984
H -0.00010417346429925088 -0.00018473471641300418 -0.000984468379039427
H -0.000979327613448433 -0.00019415441476766657 -0.00013211534088952703
H -6.454298207003717e-05 -0.0010020198226712296 -7.728884199309505e-05
H 0.0019083999991398313 0.0022955197465091004 0.0019846168541892695
6
CELL(abcABC):  200.000000 200.000000 200.000000 90.000000 90.000000 90.000000 cell{atomic_unit}  Traj: positions{atomic_unit}   Bead:       3
H -0.011808683775260674 -0.014203987697136709 -0.012280171368672653
C 0.011241900038649886 0.013522212755079364 0.011690726675617212
H -9.854816962473477e-05 -0.00017621009651413996 -0.0009526993305364327
H -0.0009478130447160281 -0.00018535216694814946 -0.00012556261586027517
H -6.0090404874202357e-05 -0.00096931750404039 -7.235744226008478e-05
H 0.0016732353613768678 0.002012654698457794 0.0017400640706100032
6
CELL(abcABC):  200.000000 200.000000 200.000000 90.000000 90.000000 90.000000 cell{atomic_unit}  Traj: positions{atomic_unit}   Bead:       4
H -0.011228612672997683 -0.013506254686879158 -0.011676941275018391
C 0.010916007237016244 0.01313021483762 0.011351821660454673
H -9.135118217429293e-05 -0.00016522198609258965 -0.0009108502785348803
H -0.0009062909422929976 -0.0001739960453495115 -0.00011714639258642022
H -5.444823480971194e-05 -0.0009262736189175057 -6.609086611319981e-05
H 0.0013646957952584413 0.001641531477414304 0.0014192071573493335
6
CELL(abcABC):  200.000000 200.000000 200.000000 90.000000 90.000000 90.000000 cell{atomic_unit}  Traj: positions{atomic_unit}   Bead:       5
H -0.010489002666425051 -0.012616621775096702 -0.010907802694415379
C 0.010486362722605946 0.012613419897444798 0.010905022335139234
H -8.283419505872303e-05 -0.00015208886927631227 -0.0008594135292305792
H -0.0008552433261588276 -0.00016040686001694837 -0.00010713471221279745
H -4.785776774873795e-05 -0.0008734216849770603 -5.8742716246840125e-05
H 0.0009885752605409692 0.0011891192919222249 0.0010280713114152462
6
CELL(abcABC):  200.000000 200.000000 200.000000 90.000000 90.000000 90.000000 cell{atomic_unit}  Traj: positions{atomic_unit}   Bead:       6
H -0.00958868979772376 -0.011533688837328524 -0.009971545139597637
C 0.00994416746169513 0.011961244056335472 0.010341178374728699
H -7.32978511219784e-05 -0.0001371968649799271 -0.0007990631156751248
H -0.0007953317560094318 -0.0001449746656057016 -9.584998905687313e-05
H -4.0603287398965904e-05 -0.000811484873741719 -5.061280838880577e-05
H 0.0005537552472123508 0.0006661011742181698 0.0005758926890919724
6
CELL(abcABC):  200.000000 200.000000 200.000000 90.000000 90.000000 90.000000 cell{atomic_unit}  Traj: positions{atomic_unit}   Bead:       7
H -0.00853361000752173 -0.010264595817766065 -0.008874341489439885
C 0.009284214613769493 0.011167424357472198 0.009654875032794052
H -6.307790956228132e-05 -0.00012098567703233697 -0.0007306773019966072
H -0.0007274205293672508 -0.00012814486138879033 -8.365572679025489e-05
H -3.299656659017103e-05 -0.0007413965663616294 -4.203153936011005e-05
H 7.289038816971072e-05 8.769856507662153e-05 7.583104699726562e-05
6
CELL(abcABC):  200.000000 200.000000 200.000000 90.000000 90.000000 90.000000 cell{atomic_unit}  Traj: positions{atomic_unit}   Bead:       8
H -0.00733911638128859 -0.008827810060729746 -0.007632157805748107
C 0.008506811166597572 0.010232330011072932 0.008846431531761567
H -5.252628887397747e-05 -0.0001039280994596936 -0.0006553503406614425
H -0.0006525889384434436 -0.00011039793523792694 -7.093769460730925e-05
H -2.5356644561824734e-05 -0.0006643087524516033 -3.333913145553424e-05
H -0.0004372229023275053 -0.0005258851243361562 -0.00045464658149363396
6
CELL(abcABC):  200.000000 200.000000 200.000000 90.000000 90.000000 90.000000 cell{atomic_unit}  Traj: positions{atomic_unit}   Bead:       9
H -0.0060311995897510675 -0.007254594169836536 -0.006272022351483385
C 0.007619130804048523 0.009164589848120741 0.007923308059654133
H -4.198834613333701e-05 -8.65035876262965e-05 -0.0005743864994744996
H -0.000572126412912155 -9.222355656923752e-05 -5.808057368383856e-05
H -1.798606263925251e-05 -0.0005815826320532125 -2.486117423039502e-05
H -0.0009558303759593655 -0.0011496859020354577 -0.0009939574330264378
6
CELL(abcABC):  200.000000 200.000000 200.000000 90.000000 90.000000 90.000000 cell{atomic_unit}  Traj: positions{atomic_unit}   Bead:       10
H -0.004646102302885424 -0.005588542240086979 -0.004831624783596666
C 0.006635670196653009 0.007981641125809347 0.006900580057367377
H -3.1778429887552306e-05 -6.916895389785793e-05 -0.0004892721616744922
H -0.0004875054193664851 -7.409090008181352e-05 -4.5442788421112816e-05
H -1.114671133173317e-05 -0.0004947565190871472 -1.6883494602382143e-05
H -0.0014591373220795842 -0.001755082518206663 -0.0015173568346238395
6
CELL(abcABC):  200.000000 200.000000 200.000000 90.000000 90.000000 90.000000 cell{atomic_unit}  Traj: positions{atomic_unit}   Bead:       11
H -0.0032280917716676068 -0.003882900767582242 -0.003356999689341222
C 0.005577616446483801 0.0067089686028864995 0.005800280622469955
H -2.215798655669232e-05 -5.232986821646079e-05 -0.0004016238897008861
H -0.0004003305575928095 -5.642008527040331e-05 -3.333264220195531e-05
H -5.039224593161862e-06 -0.00040549045232651787 -9.630352071354764e-06
H -0.0019219969116246458 -0.002311827446144221 -0.0019986940658078822
6
CELL(abcABC):  200.000000 200.000000 200.000000 90.000000 90.000000 90.000000 cell{atomic_unit}  Traj: positions{atomic_unit}   Bead:       12
H -0.0018255859379756598 -0.002195908771485122 -0.0018984980698633078
C 0.004471159831265226 0.005378075035311624 0.004649645746201969
H -1.3319617631069034e-05 -3.631800415959674e-05 -0.0003131158665681255
H -0.0003122666070165536 -3.9558539777218016e-05 -2.1990409493355397e-05
H 2.1049828546892965e-07 -0.0003154909389291305 -3.249800428761773e-06
H -0.0023201981558251816 -0.0027907987754094417 -0.002412791588746188
6
CELL(abcABC):  200.000000 200.000000 200.000000 90.000000 90.000000 90.000000 cell{atomic_unit}  Traj: positions{atomic_unit}   Bead:       13
H -0.00048628753246404694 -0.0005849451034656283 -0.000505727199007211
C 0.0033450391290212873 0.004023528721308622 0.003478561688696757
H -5.380057510606661e-06 -2.137717225458857e-05 -0.0002253940589724834
H -0.00022495309504044767 -2.3766427714733137e-05 -1.1578832337377774e-05
H 4.554701060754951e-06 -0.00022642394070793157 2.19083640118356e-06
H -0.0026329731561691716 -0.00316701606606351 -0.0027380524292297532
6
CELL(abcABC):  200.000000 200.000000 200.000000 90.000000 90.000000 90.000000 cell{atomic_unit}  Traj: positions{atomic_unit}   Bead:       14
H 0.0007477101160446863 0.0008993586986250078 0.0007775390220565724
C 0.00222779654723837 0.002679661414983769 0.002316710306926595
H 1.6175005779217597e-06 -7.660139189624715e-06 -0.00013998861514430416
H -0.00013991678371461092 -9.2124030626195e-06 -2.183114800047292e-06
H 8.017381203373475e-06 -0.000139827655010194 6.6992078551209025e-06
H -0.0028452247669008553 -0.0034223199107952236 -0.00295877674583167
6
CELL(abcABC):  200.000000 200.000000 200.000000 90.000000 90.000000 90.000000 cell{atomic_unit}  Traj: positions{atomic_unit}   Bead:       15
H 0.001843864899653269 0.0022178595959765346 0.0019174591914250525
C 0.0011452669479439237 0.0013775483975742018 0.0011909579655799973
H 7.692596559749632e-06 4.764566519099844e-06 -5.823657112102864e-05
H -5.849386530698552e-05 4.0204117812692175e-06 6.180245204490119e-06
H 1.0679496176280166e-05 -5.703675309831623e-05 1.0343731426942782e-05
H -0.00294901000286174 -0.003547156224303904 -0.0030667045458621085
6
CELL(abcABC):  200.000000 200.000000 200.000000 90.000000 90.000000 90.000000 cell{atomic_unit}  Traj: positions{atomic_unit}   Bead:       16
H 0.0027814813341464624 0.003345664256748648 0.0028925115913569495
C 0.00011871900129634126 0.00014277267701423568 0.0001234226165713892
H 1.291143303383535e-05 1.5898238281408794e-05 1.877549227202735e-05
H 1.822773043613779e-05 1.592096454672287e-05 1.3548784316697036e-05
H 1.2659545634008394e-05 2.0872170658492447e-05 1.3234280338281222e-05
H -0.00294399902789344 -0.0035411282572894716 -0.003061492759304229
6
CELL(abcABC):  200.000000 200.000000 200.000000 90.000000 90.000000 90.000000 cell{atomic_unit}  Traj: positions{atomic_unit}   Bead:       17
H 0.0035521343810795965 0.004272638676194873 0.003693934791382247
C -0.0008361457526362414 -0.001005779431961784 -0.0008695673348046994
H 1.7369294891267373e-05 2.5794022473490937e-05 9.024241354183003e-05
H 8.94400942197393e-05 2.653271491404041e-05 1.99970207059863e-05
H 1.4093648470492324e-05 9.310890392022485e-05 1.550188311050249e-05
H -0.002836891671575969 -0.0034122948744386146 -0.0029501087961403267
6
CELL(abcABC):  200.000000 200.000000 200.000000 90.000000 90.000000 90.000000 cell{atomic_unit}  Traj: positions{atomic_unit}   Bead:       18
H 0.004158452093783183 0.005001943931270958 0.004324461722049477
C -0.0017093564730341624 -0.0020561144953301635 -0.0017776429717120121
H 2.1173129916007835e-05 3.4537961379754734e-05 0.00015564592392713905
H 0.0001546213490577486 3.593492725606495e-05 2.5619156795997352e-05
H 1.511731295700258e-05 0.00015917215878680224 1.7280149533505096e-05
H -0.0026400074237820093 -0.0031754744722611856 -0.002745363975042991
6
CELL(abcABC):  200.000000 200.000000 200.000000 90.000000 90.000000 90.000000 cell{atomic_unit}  Traj: positions{atomic_unit}   Bead:       19
H 0.004611798865017391 0.005547249543047527 0.004795910424348904
C -0.0024961781419641227 -0.003002537191099108 -0.002595880327360689
H 2.4429075429210908e-05 4.223322247476346e-05 0.00021473594569165752
H 0.00021351758694443387 4.422704424911216e-05 3.0515850957257836e-05
H 1.5852974488694827e-05 0.00021882895495650698 1.8692208891835094e-05
H -0.0023694203710178385 -0.002850001584731032 -0.002463974102528965
6
CELL(abcABC):  200.000000 200.000000 200.000000 90.000000 90.000000 90.000000 cell{atomic_unit}  Traj: positions{atomic_unit}   Bead:       20
H 0.0049294851978132215 0.005929377272506641 0.005126282526246584
C -0.0031962131108453913 -0.0038445692018829187 -0.0033238659158385526
H 2.7235169675066114e-05 4.898959571342231e-05 0.0002674942212177456
H 0.0002661066977882598 5.151751247822744e-05 3.478580201665693e-05
H 1.6404166913730478e-05 0.0002720768776942606 1.984427067114325e-05
H -0.002043018110242656 -0.002457392056509633 -0.0021245409043135766
6
CELL(abcABC):  200.000000 200.000000 200.000000 90.000000 90.000000 90.000000 cell{atomic_unit}  Traj: positions{atomic_unit}   Bead:       21
H 0.005132033037424932 0.006173011762866664 0.005336919312037835
C -0.0038123447565485686 -0.00458567884775718 -0.0039645983329617
H 2.967670553744028e-05 5.49151502049483e-05 0.00031408993184101064
H 0.0003125543879267667 5.791537804888946e-05 3.851990948433581e-05
H 1.6852458317728747e-05 0.00031909906939020516 2.0822260582420423e-05
H -0.001678771838209414 -0.0020192625016512977 -0.0017457530754327875
6
CELL(abcABC):  200.000000 200.000000 200.000000 90.000000 90.000000 90.000000 cell{atomic_unit}  Traj: positions{atomic_unit}   Bead:       22
H 0.005240856609800559 0.006303910854432714 0.005450089840541849
C -0.00434970598983675 -0.005232040206637478 -0.0045234154033568785
H 3.182447083638351e-05 6.0111055022460384e-05 0.00035483339599906566
H 0.00035316782831529275 6.352430248490748e-05 4.179827040040606e-05
H 1.725802833973944e-05 0.00036021751137482733 2.1691354268327242e-05
H -0.0012934009530063406 -0.001555723533330777 -0.001344997463403885
6
CELL(abcABC):  200.000000 200.000000 200.000000 90.000000 90.000000 90.000000 cell{atomic_unit}  Traj: positions{atomic_unit}   Bead:       23
H 0.005276527476061332 0.006346818937075226 0.005487187088037969
C -0.004814783177709003 -0.005791455393033828 -0.005007062547912611
H 3.3735020332770205e-05 6.466899793444725e-05 0.0003901318601506886
H 0.0003883516397351627 6.843970945524802e-05 4.46891301741914e-05
H 1.7661611062536053e-05 0.00039584891475819 2.2498047869135004e-05
H -0.0009014925916872584 -0.001084321177291514 -0.0009374435672171443
6
CELL(abcABC):  200.000000 200.000000 200.000000 90.000000 90.000000 90.000000 cell{atomic_unit}  Traj: positions{atomic_unit}   Bead:       24
H 0.005257642116118788 0.006324104478983016 0.005467549912818725
C -0.005214703530098674 -0.006272497260484399 -0.005422951437905609
H 3.545189697362616e-05 6.866987534159819e-05 0.00042045111836586097
H 0.00041856941801476916 7.274698066161989e-05 4.724908797548721e-05
H 1.8087731312732558e-05 0.000426466439940043 2.3272661575646222e-05
H -0.000515047604565666 -0.0006194905144418783 -0.0005355713428301101
6
CELL(abcABC):  200.000000 200.000000 200.000000 90.000000 90.000000 90.000000 cell{atomic_unit}  Traj: positions{atomic_unit}   Bead:       25
H 0.005200216479650521 0.006255032153346106 0.0054078336364504756
C -0.005556708621012873 -0.006683876130342269 -0.00577861262174295
H 3.700714734655719e-05 7.218342035208991e-05 0.0004462841929342431
H 0.00044431246459808443 7.65206287223208e-05 4.952387944179292e-05
H 1.8547585689532298e-05 0.0004525686603251699 2.4032242862404015e-05
H -0.00014337502296513094 -0.0001724287324034179 -0.00014906133549708045
6
CELL(abcABC):  200.000000 200.000000 200.000000 90.000000 90.000000 90.000000 cell{atomic_unit}  Traj: positions{atomic_unit}   Bead:       26
H 0.005117491586048573 0.006155528747830984 0.005321807955427359
C -0.005847793121960264 -0.00703400536150589 -0.006081319836592768
H 3.8423142445509484e-05 7.526861911522076e-05 0.00046812715370769803
H 0.00046607551706934197 7.982463023914477e-05 5.1549453594645904e-05
H 1.904212898473645e-05 0.0004746555926082862 2.4783236574066333e-05
H 0.00020676079182102566 0.0002487277495077933 0.0002150520261867683
6
CELL(abcABC):  200.000000 200.000000 200.000000 90.000000 90.000000 90.000000 cell{atomic_unit}  Traj: positions{atomic_unit}   Bead:       27
H 0.005020024113067123 0.006038292293952806 0.005220450954857014
C -0.006094479226836923 -0.007330729995258522 -0.006337855584792606
H 3.971499240584819e-05 7.797520962249394e-05 0.0004864611657939832
H 0.00048433859700658383 8.271358042932775e-05 5.335408781448336e-05
H 1.956536599401204e-05 0.0004932112329658622 2.5524810043364706e-05
H 0.0005308361639144721 0.0006385377004924919 0.0005520645607326458
6
CELL(abcABC):  200.000000 200.000000 200.000000 90.000000 90.000000 90.000000 cell{atomic_unit}  Traj: positions{atomic_unit}   Bead:       28
H 0.004915947338091087 0.005913105755039893 0.005112220596847905
C -0.0063026939889354585 -0.007581179467530673 -0.006554383630286153
H 4.089288352382425e-05 8.034544696222667e-05 0.0005017398274631546
H 0.0004995544311547917 8.52345694024592e-05 5.496035293539591e-05
H 2.010744348801552e-05 0.0005086910448426352 2.625185624438586e-05
H 0.0008261919093310864 0.0009938026124256538 0.0008592109745908515
6
CELL(abcABC):  200.000000 200.000000 200.000000 90.000000 90.000000 90.000000 cell{atomic_unit}  Traj: positions{atomic_unit}   Bead:       29
H 0.004811316706154756 0.005787252910227635 0.005003414110804627
C -0.006477717351405231 -0.007791704748072447 -0.006736394825290758
H 4.1963471586470284e-05 8.241526905372609e-05 0.000514381071070602
H 0.0005121400914465113 8.742799262329014e-05 5.638644551275717e-05
H 2.0656459875922906e-05 0.0005215143705772363 2.6956775700526233e-05
H 0.0010916406167904569 0.001313094200039444 0.0011352564222022465
6
CELL(abcABC):  200.000000 200.000000 200.000000 90.000000 90.000000 90.000000 cell{atomic_unit}  Traj: positions{atomic_unit}   Bead:       30
H 0.0047104799616448645 0.005665963359602343 0.004898552785626009
C -0.006624177401048924 -0.007967872789338415 -0.006888702158702741
H 4.293100319685549e-05 8.421514041678789e-05 0.0005247628109827929
H 0.0005224728982788918 8.932832806785028e-05 5.764693722376534e-05
H 2.11998141264047e-05 0.000532059990510092 2.763076434320055e-05
H 0.001327093746006369 0.0015963059651902254 0.001380108827220283
6
CELL(abcABC):  200.000000 200.000000 200.000000 90.000000 90.000000 90.000000 cell{atomic_unit}  Traj: positions{atomic_unit}   Bead:       31
H 0.004616431326098791 0.005552838694411476 0.004800750452726987
C -0.006746076064434447 -0.0081144972796654 -0.007015467384796636
H 4.379819285027508e-05 8.577089594119512e-05 0.0005332212615893894
H 0.000530888460970047 9.096501885075269e-05 5.8753707454783914e-05
H 2.1725088394930477e-05 0.0005406647907157947 2.826485157036984e-05
H 0.0015332329961204037 0.001844257907501756 0.0015944771392106814
6
CELL(abcABC):  200.000000 200.000000 200.000000 90.000000 90.000000 90.000000 cell{atomic_unit}  Traj: positions{atomic_unit}   Bead:       32
H 0.00453112880549611 0.005450234075166093 0.004712043222276918
C -0.00684683129636987 -0.008235689574753735 -0.007120244954750276
H 4.456672253461135e-05 8.710444587833875e-05 0.0005400510483255516
H 0.0005376810385815389 9.236316156346901e-05 5.971643735058762e-05
H 2.222073081092901e-05 0.0005476238518209442 2.88503720913269e-05
H 0.0017112339489866455 0.0020583640514271195 0.0017795838858081223
6
CELL(abcABC):  200.000000 200.000000 200.000000 90.000000 90.000000 90.000000 cell{atomic_unit}  Traj: positions{atomic_unit}   Bead:       33
H 0.0044557651734944415 0.005359584270836492 0.0046336715409101
C -0.006929326185067807 -0.008334917589447599 -0.00720603316461954
H 4.5237669166198195e-05 8.82342532371183e-05 0.0005455065565929118
H 0.0005431046834480924 9.354388930127298e-05 6.0543170476989865e-05
H 2.2676388544695666e-05 0.0005531918867429653 2.9379509935978373e-05
H 0.0018625422648632648 0.0022403632726764044 0.0019369323644990997
6
CELL(abcABC):  200.000000 200.000000 200.000000 90.000000 90.000000 90.000000 cell{atomic_unit}  Traj: positions{atomic_unit}   Bead:       34
H 0.00439099140381316 0.0052816722606596755 0.0045663123893202595
C -0.006995959528355299 -0.00841506668236569 -0.007275326552313998
H 4.581172108331088e-05 8.917580007761215e-05 0.0005498037691786806
H 0.0005473750563922408 9.452502114370985e-05 6.12404682520662e-05
H 2.308302438081e-05 0.0005575851336203641 2.984535951711109e-05
H 0.0019886983504413536 0.002392108477966559 0.002068124554943651
6
CELL(abcABC):  200.000000 200.000000 200.000000 90.000000 90.000000 90.000000 cell{atomic_unit}  Traj: positions{atomic_unit}   Bead:       35
H 0.004337094716699852 0.00521684351828533 0.00451026443970548
C -0.007048693401179306 -0.008478496932307067 -0.0073301655689750325
H 4.628941119300122e-05 8.99418262090279e-05 0.000553122442292775
H 0.0005506716804770662 9.532126754585589e-05 6.181373746194652e-05
H 2.3433027740438203e-05 0.0005609835762587778 3.024213657276675e-05
H 0.0020912045373133736 0.0025154067107013844 0.002174722785186489
6
CELL(abcABC):  200.000000 200.000000 200.000000 90.000000 90.000000 90.000000 cell{atomic_unit}  Traj: positions{atomic_unit}   Bead:       36
H 0.0042941370292925995 0.00516517260629179 0.004465592129410112
C -0.007089095804824196 -0.008527094458310458 -0.007372180821363371
H 4.667113917555809e-05 9.054269001218528e-05 0.0005556084592406307
H 0.0005531402891278958 9.594448013849898e-05 6.226731907865712e-05
H 2.3720198027987746e-05 0.0005635332089859446 3.0565050490594103e-05
H 0.002171427160302386 0.0026119014562286935 0.0022581478797967236
6
CELL(abcABC):  200.000000 200.000000 200.000000 90.000000 90.000000 90.000000 cell{atomic_unit}  Traj: positions{atomic_unit}   Bead:       37
H 0.004262059233317572 0.005126588353832062 0.00443223395207859
C -0.007118377143289222 -0.008562315118032515 -0.007402631069242104
H 4.6957143728931776e-05 9.098645170624307e-05 0.0005573757455579198
H 0.0005548946135913724 9.640396259058547e-05 6.260460483353825e-05
H 2.3939694671071262e-05 0.0005653480794620691 3.0810393125690894e-05
H 0.0022305264579802753 0.0026829882593393246 0.002319606384748596
6
CELL(abcABC):  200.000000 200.000000 200.000000 90.000000 90.000000 90.000000 cell{atomic_unit}  Traj: positions{atomic_unit}   Bead:       38
H 0.00424075718985506 0.005100965549953429 0.004410081622108208
C -0.007137419444358527 -0.008585219890555607 -0.007422433523363025
H 4.714768575553307e-05 9.127902877992254e-05 0.000558508106429656
H 0.0005560184090924736 9.670653167148656e-05 6.282809827951041e-05
H 2.408795940489483e-05 0.000566512120547813 3.0975433329416546e-05
H 0.0022694082002505667 0.00272975665405184 0.0023600402798695796
6
CELL(abcABC):  200.000000 200.000000 200.000000 90.000000 90.000000 90.000000 cell{atomic_unit}  Traj: positions{atomic_unit}   Bead:       39
H 0.004230134248439654 0.005088187959856327 0.004399034703173044
C -0.007146798464141567 -0.008596501349655838 -0.007432186960310005
H 4.7242937339930784e-05 9.142434587161573e-05 0.0005590606422245514
H 0.0005565666760798393 9.685670043779736e-05 6.293941479107446e-05
H 2.4162666312221855e-05 0.0005670804936741547 3.105839474493166e-05
H 0.0022886919637254977 0.0027529518831226336 0.00238009384423421
